####################################################################
#                HERCULES EMULATOR CONTROL FILE                    #
#             (Note: not all parameters are shown)                 #
####################################################################


    #
    #     System parameters
    #


    ARCHMODE   ESA/390
    OSTAILOR   OS/390
    LOADPARM   0120....

    CPUSERIAL  000611
    CPUMODEL   3090
    CPUVERID   FD
    LPARNAME   HERCULES
    LPARNUM    21
    MODEL      EMULATOR
    PLANT      ZZ
    MANUFACTURER HRC
    MAINSIZE   64
    XPNDSIZE   0
    NUMCPU     1
    NUMVEC     1
    MAXCPU     8
    ENGINES    CP
    SYSEPOCH   1900
    YROFFSET   -28
    TZOFFSET   -0500

    HTTPROOT   /usr/local/share/hercules/
    HTTPPORT   8081 NOAUTH

    CCKD       RA=2,RAQ=4,RAT=2,WR=2,GCINT=10,GCPARM=0,NOSTRESS=0,TRACE=0,FREEPEND=-1
    SHRDPORT   3990

    PANTITLE   "My own private MAINFRAME!"
    PANRATE    FAST
    LOGOPT     TIMESTAMP
    CODEPAGE   default
    CNSLPORT   3270
    CONKPALV   (3,1,10)
    LEGACYSENSEID   OFF

    HERCPRIO   0
    TODPRIO    -20
    DEVPRIO    8
    CPUPRIO    15

    TIMERINT   DEFAULT
    TODDRAG    1.0
    DEVTMAX    8

    DIAG8CMD   disable
    SHCMDOPT   disable

    DEFSYM     TAPEDIR   "$(HOME)/.config/hercules/tapes"
    AUTOMOUNT  $(TAPEDIR)
#   AUTOMOUNT  +/tapes
#   AUTOMOUNT  -/tapes/vault

    MODPATH    /usr/local/hercules
    LDMOD      dyncrypt

    PGMPRDOS   restricted
    ECPSVM     no
    ASN_AND_LX_REUSE  disable

    AUTO_SCSI_MOUNT      no
    MOUNTED_TAPE_REINIT  allow

    INCLUDE    mydevs.cfg
    IGNORE     INCLUDE_ERRORS
    INCLUDE    optdevs.cfg


    #
    #     Device statements
    #


    0009      3215-C  /

    000A      1442    adrdmprs.rdr
    000C      3505    jcl.txt     ascii  trunc
    000D      3525    pch00d.txt  ascii
    000E      1403    prt00e.txt  noclear
    001E      1403    192.168.200.1:1403 sockdev

    001F      3270    * 192.168.0.1
    0200.4    3270    * 192.168.0.0  255.255.255.0
    0220.8    3270    GROUP1  192.168.100.0  255.255.255.0
    0228.8    3270    GROUP2
    0230.16   3270

    0000      SYSG    SYSGCONS

    0120      3380    ${DASD_PATH=dasd/}mvsv5r.120
    0121      3380    ${DASD_PATH=dasd/}mvsv5d.121
    0122      3380    ${DASD_PATH=dasd/}mvswk1.122
    0123      3380    192.168.1.100

    0140      3370    dosres.140
    0141      3370    syswk1.141
    0300      3370    sysres.300

    0400      CTCT    30880  192.168.100.2  30880  2048      
    0401      CTCT    30881  192.168.100.2  30881  2048
    0420.2    CTCI    192.168.200.1  192.168.200.2
    0440.2    LCS     -n   /dev/net/tun   192.168.200.2

    0580      3420    /dev/nst0   # SCSI  (Linux or Windows)
    0581      3420    \\.\Tape0   # SCSI  (Windows only)
    0582      3420    ickdsf.aws  noautomount
    0583      3420    /cdrom/tapes/uaa196.tdf
    0584-0587 3420    $(TAPEDIR)/volumes.$(CUU) maxsizeM=170 eotmargin=131072

    0590      3480    /dev/nst0 --no-erg --blkid-32   # Quantum DLT SCSI

    0023      2703    lport=3780 rhost=localhost rport=3781 dial=no
